/*--------------------------------*- C++ -*----------------------------------*\
| =========                 |                                                 |
| \\      /  F ield         | OpenFOAM: The Open Source CFD Toolbox           |
|  \\    /   O peration     | Version:  v2006                                 |
|   \\  /    A nd           | Web:      www.OpenFOAM.com                      |
|    \\/     M anipulation  |                                                 |
\*---------------------------------------------------------------------------*/
FoamFile
{
    version     2.0;
    format      ascii;
    class       dictionary;
    location    "system";
    object      controlDict;
}
// * * * * * * * * * * * * * * * * * * * * * * * * * * * * * * * * * * * * * //

application     lusgsFoam;

startFrom       startTime;

startTime       0;

stopAt          endTime;

endTime         10;

deltaT          2e-3;

writeControl    runTime;

writeInterval   1;

purgeWrite      0;

writeFormat     ascii;

writePrecision  6;

writeCompression on;

timeFormat      general;

timePrecision   9;

runTimeModifiable true;

functions
{
    forceCoefficients
    {
        type            forceCoeffs;
        libs            ("libforces.so");

        writeControl    timeStep;
        writeInterval   1;

        log             off;

        patches         (cylinder);

        magUInf         34.723;
        rhoInf          1.161;
        lRef            1;
        Aref            1;

        liftDir         (0 1 0);
        dragDir         (1 0 0);

        CofR            (0 0 0);
        pitchAxis       (0 1 0);
    }
}

// ************************************************************************* //
