/*--------------------------------*- C++ -*----------------------------------*\
| =========                 |                                                 |
| \\      /  F ield         | OpenFOAM: The Open Source CFD Toolbox           |
|  \\    /   O peration     | Version:  v2112                                 |
|   \\  /    A nd           | Website:  www.openfoam.com                      |
|    \\/     M anipulation  |                                                 |
\*---------------------------------------------------------------------------*/
FoamFile
{
    version     2.0;
    format      ascii;
    class       dictionary;
    location    "system";
    object      fvSchemes;
}
// * * * * * * * * * * * * * * * * * * * * * * * * * * * * * * * * * * * * * //

fluxScheme              Tadmor;

ddtSchemes
{
    default             Euler;
}

gradSchemes
{
    default             Gauss linear;
}

divSchemes
{
    div(phi,gammaInt)   Gauss linearUpwind grad(gammaInt);
    div(phi,ReThetat)   Gauss linearUpwind grad(ReThetat);
    div(phi,omega)      Gauss linearUpwind grad(omega);
    div(phi,k)          Gauss linearUpwind grad(k);

    div(tauMC)          Gauss linear;

    div(((rho*nuEff)*dev2(T(grad(U))))) Gauss linear;
}

laplacianSchemes
{
    default             Gauss linear corrected;
}

interpolationSchemes
{
    default             linear;

    reconstruct(rho)    vanLeer;
    reconstruct(p)      vanLeer;
    reconstruct(U)      vanLeerV;
}

snGradSchemes
{
    default             corrected;
}

wallDist
{
    method              meshWave;
    nRequired           true;
}

// ************************************************************************* //


